Version 4
SHEET 1 880 872
WIRE 464 48 192 48
WIRE 752 48 544 48
WIRE 192 192 192 48
WIRE 224 192 192 192
WIRE 112 224 112 48
WIRE 672 224 368 224
WIRE 752 224 752 48
WIRE 800 224 752 224
WIRE 224 256 144 256
WIRE 800 256 800 224
WIRE 672 320 672 224
WIRE 672 320 368 320
WIRE 672 352 400 352
WIRE 144 400 144 256
WIRE 400 416 400 352
WIRE 432 416 400 416
WIRE 672 448 672 352
WIRE 672 448 576 448
WIRE 752 448 752 224
WIRE 368 480 368 320
WIRE 432 480 368 480
WIRE 320 704 208 704
WIRE 320 720 320 704
FLAG 112 224 0
FLAG 144 480 0
FLAG 208 624 VCC+
FLAG 208 784 VCC-
FLAG 320 720 0
FLAG 464 368 VCC+
FLAG 256 144 VCC+
FLAG 256 304 VCC-
FLAG 464 528 VCC-
SYMBOL LT1210 256 224 R0
SYMATTR InstName U1
SYMBOL LT1210 464 448 R0
SYMATTR InstName U2
SYMBOL res 768 432 R90
WINDOW 0 0 56 VBottom 2
WINDOW 3 32 56 VTop 2
SYMATTR InstName Rs
SYMATTR Value 1
SYMBOL res 768 208 R90
WINDOW 0 0 56 VBottom 2
WINDOW 3 32 56 VTop 2
SYMATTR InstName Rs2
SYMATTR Value 1
SYMBOL res 560 32 R90
WINDOW 0 0 56 VBottom 2
WINDOW 3 32 56 VTop 2
SYMATTR InstName Rf
SYMATTR Value 1000
SYMBOL res 208 32 R90
WINDOW 0 0 56 VBottom 2
WINDOW 3 32 56 VTop 2
SYMATTR InstName Ri
SYMATTR Value 1000
SYMBOL voltage 144 384 R0
SYMATTR InstName V1
SYMATTR Value SINE(0 2 200000)
SYMBOL voltage 208 608 R0
SYMATTR InstName V2
SYMBOL voltage 208 688 R0
SYMATTR InstName V3
TEXT -272 80 Left 2 !.tran 1m
